
  EPA STORM WATER MANAGEMENT MODEL - VERSION 5.2 (Build 5.2.4)
  PYSWMM TOOLKIT API - VERSION v1.0 (2023-11-27)
  ------------------------------------------------------------

  SWMM_Project 
  WARNING 04: minimum elevation drop used for Conduit 56719
  WARNING 04: minimum elevation drop used for Conduit 54573
  
  ****************
  Analysis Options
  ****************
  Flow Units ............... LPS
  Process Models:
    Rainfall/Runoff ........ YES
    RDII ................... NO
    Snowmelt ............... NO
    Groundwater ............ NO
    Flow Routing ........... YES
    Ponding Allowed ........ NO
    Water Quality .......... NO
  Infiltration Method ...... MODIFIED_GREEN_AMPT
  Flow Routing Method ...... DYNWAVE
  Surcharge Method ......... EXTRAN
  Starting Date ............ 09/24/2020 00:00:00
  Ending Date .............. 09/24/2020 23:55:00
  Antecedent Dry Days ...... 0.0
  Report Time Step ......... 00:05:00
  Wet Time Step ............ 00:05:00
  Dry Time Step ............ 01:00:00
  Routing Time Step ........ 30.00 sec
  Variable Time Step ....... YES
  Maximum Trials ........... 8
  Number of Threads ........ 1
  Head Tolerance ........... 0.001500 m
  
  
  **************************        Volume         Depth
  Runoff Quantity Continuity     hectare-m            mm
  **************************     ---------       -------
  Total Precipitation ......         0.266         1.383
  Evaporation Loss .........         0.000         0.000
  Infiltration Loss ........         0.054         0.283
  Surface Runoff ...........         0.046         0.238
  Final Storage ............         0.166         0.865
  Continuity Error (%) .....        -0.140
  
  
  **************************        Volume        Volume
  Flow Routing Continuity        hectare-m      10^6 ltr
  **************************     ---------     ---------
  Dry Weather Inflow .......         0.000         0.000
  Wet Weather Inflow .......         0.046         0.455
  Groundwater Inflow .......         0.000         0.000
  RDII Inflow ..............         0.000         0.000
  External Inflow ..........         0.000         0.000
  External Outflow .........         0.000         0.000
  Flooding Loss ............         0.021         0.207
  Evaporation Loss .........         0.000         0.000
  Exfiltration Loss ........         0.000         0.000
  Initial Stored Volume ....         0.000         0.000
  Final Stored Volume ......         0.024         0.242
  Continuity Error (%) .....         1.389
  
  
  *************************
  Highest Continuity Errors
  *************************
  Node 54191 (100.00%)
  Node 55776 (100.00%)
  Node Node_54 (100.00%)
  Node 101076 (99.95%)
  Node 65198 (99.93%)
  
  
  ***************************
  Time-Step Critical Elements
  ***************************
  Link 88370 (40.06%)
  Link 73815 (28.75%)
  Link 83966 (19.57%)
  Link 101835 (7.60%)
  Link 101083 (1.13%)
  
  
  ********************************
  Highest Flow Instability Indexes
  ********************************
  Link 78234 (4)
  Link 78233 (4)
  
  
  *********************************
  Most Frequent Nonconverging Nodes
  *********************************
  Node 101133 (0.61%)
  Node 101244 (0.61%)
  Node 87377 (0.14%)
  Node 145989 (0.06%)
  Node 54231 (0.05%)
  
  
  *************************
  Routing Time Step Summary
  *************************
  Minimum Time Step           :     0.00 sec
  Average Time Step           :     2.61 sec
  Maximum Time Step           :    30.00 sec
  % of Time in Steady State   :     0.00
  Average Iterations per Step :     2.06
  % of Steps Not Converging   :     0.61
  Time Step Frequencies       :
     30.000 - 13.228 sec      :     1.47 %
     13.228 -  5.833 sec      :     5.92 %
      5.833 -  2.572 sec      :    17.18 %
      2.572 -  1.134 sec      :    34.70 %
      1.134 -  0.500 sec      :    40.74 %
  
  
  ***************************
  Subcatchment Runoff Summary
  ***************************
  
  ------------------------------------------------------------------------------------------------------------------------------
                            Total      Total      Total      Total     Imperv       Perv      Total       Total     Peak  Runoff
                           Precip      Runon       Evap      Infil     Runoff     Runoff     Runoff      Runoff   Runoff   Coeff
  Subcatchment                 mm         mm         mm         mm         mm         mm         mm    10^6 ltr      LPS
  ------------------------------------------------------------------------------------------------------------------------------
  SubCatch_128               1.38       0.00       0.00       0.61       0.19       0.00       0.19        0.01     0.54   0.141
  SubCatch_129               1.38       0.00       0.00       0.29       0.27       0.00       0.27        0.01     1.22   0.195
  SubCatch_131               1.38       0.00       0.00       0.30       0.27       0.00       0.27        0.00     0.43   0.193
  SubCatch_132               1.38       0.00       0.00       0.21       0.28       0.00       0.28        0.00     0.36   0.202
  SubCatch_133               1.38       0.00       0.00       0.25       0.28       0.00       0.28        0.01     1.31   0.202
  SubCatch_149               1.38       0.31       0.00       0.52       0.29       0.00       0.29        0.01     0.74   0.172
  SubCatch_157               1.38       0.00       0.00       0.26       0.28       0.00       0.28        0.00     0.23   0.200
  SubCatch_162               1.38       0.00       0.00       0.13       0.29       0.00       0.29        0.01     0.63   0.210
  SubCatch_168               1.38       0.00       0.00       0.16       0.29       0.00       0.29        0.01     0.95   0.209
  SubCatch_170               1.38       0.00       0.00       0.17       0.30       0.00       0.30        0.00     0.28   0.217
  SubCatch_176               1.38       0.00       0.00       0.11       0.30       0.00       0.30        0.02     1.47   0.220
  SubCatch_180               1.38       0.00       0.00       0.64       0.19       0.00       0.19        0.01     0.74   0.135
  SubCatch_184               1.38       0.00       0.00       0.19       0.30       0.00       0.30        0.01     1.15   0.214
  SubCatch_186               1.38       0.36       0.00       0.34       0.34       0.00       0.34        0.01     0.77   0.198
  SubCatch_202               1.38       0.00       0.00       0.23       0.27       0.00       0.27        0.01     0.75   0.198
  SubCatch_204               1.38       0.28       0.00       0.13       0.35       0.00       0.35        0.01     0.62   0.208
  SubCatch_213               1.38       0.00       0.00       0.29       0.27       0.00       0.27        0.01     0.66   0.195
  SubCatch_214               1.38       0.00       0.00       0.25       0.27       0.00       0.27        0.01     0.66   0.197
  SubCatch_217               1.38       0.43       0.00       0.18       0.40       0.00       0.40        0.01     0.76   0.218
  SubCatch_222               1.38       0.00       0.00       0.12       0.31       0.00       0.31        0.01     0.64   0.223
  SubCatch_227               1.38       0.00       0.00       0.10       0.31       0.00       0.31        0.01     0.73   0.226
  SubCatch_231               1.38       0.00       0.00       0.02       0.32       0.00       0.32        0.01     0.43   0.235
  SubCatch_245               1.38       0.00       0.00       0.40       0.24       0.00       0.24        0.01     0.45   0.175
  SubCatch_246               1.38       0.00       0.00       0.41       0.24       0.00       0.24        0.02     1.46   0.170
  SubCatch_262               1.38       0.00       0.00       0.94       0.11       0.00       0.11        0.00     0.35   0.080
  SubCatch_268               1.38       0.00       0.00       0.33       0.26       0.00       0.26        0.01     0.85   0.187
  SubCatch_269               1.38       0.00       0.00       0.10       0.32       0.00       0.32        0.01     0.85   0.230
  SubCatch_273               1.38       0.00       0.00       0.10       0.31       0.00       0.31        0.01     0.66   0.227
  SubCatch_277               1.38       0.00       0.00       0.30       0.26       0.00       0.26        0.01     0.85   0.190
  SubCatch_284               1.38       0.00       0.00       0.51       0.21       0.00       0.21        0.00     0.24   0.154
  SubCatch_285               1.38       1.02       0.00       0.33       0.50       0.00       0.50        0.01     0.47   0.207
  SubCatch_289               1.38       0.00       0.00       0.41       0.24       0.00       0.24        0.01     1.17   0.173
  SubCatch_296               1.38       0.00       0.00       0.59       0.20       0.00       0.20        0.00     0.34   0.141
  SubCatch_297               1.38       0.00       0.00       0.35       0.25       0.00       0.25        0.00     0.22   0.182
  SubCatch_298               1.38       0.40       0.00       0.08       0.42       0.00       0.42        0.01     0.43   0.235
  SubCatch_308               1.38       0.00       0.00       0.04       0.33       0.00       0.33        0.01     0.68   0.236
  SubCatch_319               1.38       0.00       0.00       0.03       0.32       0.00       0.32        0.01     0.96   0.230
  SubCatch_320               1.38       0.00       0.00       0.16       0.30       0.00       0.30        0.01     0.42   0.216
  SubCatch_328               1.38       0.00       0.00       0.13       0.30       0.00       0.30        0.01     0.59   0.220
  SubCatch_329               1.38       0.00       0.00       0.10       0.30       0.00       0.30        0.02     1.27   0.218
  SubCatch_332               1.38       0.00       0.00       0.35       0.25       0.00       0.25        0.01     0.54   0.183
  SubCatch_334               1.38       0.00       0.00       0.54       0.21       0.00       0.21        0.01     0.60   0.151
  SubCatch_335               1.38       0.00       0.00       0.11       0.31       0.00       0.31        0.02     1.21   0.222
  SubCatch_342               1.38       0.00       0.00       0.24       0.28       0.00       0.28        0.01     0.44   0.201
  SubCatch_347               1.38       0.00       0.00       0.17       0.29       0.00       0.29        0.01     0.52   0.213
  SubCatch_350               1.38       0.00       0.00       0.10       0.31       0.00       0.31        0.01     1.10   0.224
  SubCatch_355               1.38       0.00       0.00       0.30       0.27       0.00       0.27        0.01     0.79   0.192
  SubCatch_356               1.38       0.00       0.00       0.02       0.31       0.00       0.31        0.01     0.66   0.223
  SubCatch_368               1.38       0.00       0.00       0.37       0.25       0.00       0.25        0.01     0.53   0.179
  SubCatch_375               1.38       0.29       0.00       0.32       0.33       0.00       0.33        0.01     0.88   0.195
  SubCatch_382               1.38       0.00       0.00       0.44       0.23       0.00       0.23        0.01     0.89   0.169
  SubCatch_399               1.38       0.00       0.00       0.34       0.25       0.00       0.25        0.02     1.51   0.182
  SubCatch_400               1.38       0.00       0.00       0.30       0.27       0.00       0.27        0.01     1.17   0.193
  SubCatch_402               1.38       0.00       0.00       0.35       0.26       0.00       0.26        0.01     0.83   0.185
  SubCatch_414               1.38       0.00       0.00       0.42       0.24       0.00       0.24        0.01     1.02   0.171
  SubCatch_421               1.38       0.00       0.00       0.58       0.20       0.00       0.20        0.01     0.86   0.142
  
  
  ******************
  Node Depth Summary
  ******************
  
  ---------------------------------------------------------------------------------
                                 Average  Maximum  Maximum  Time of Max    Reported
                                   Depth    Depth      HGL   Occurrence   Max Depth
  Node                 Type       Meters   Meters   Meters  days hr:min      Meters
  ---------------------------------------------------------------------------------
  99825                JUNCTION     0.00     0.00    43.46     0  00:00        0.00
  99709                JUNCTION     0.00     0.00    42.20     0  00:00        0.00
  99824                JUNCTION     0.00     0.00    43.48     0  00:00        0.00
  99710                JUNCTION     0.00     0.00    42.11     0  00:00        0.00
  97453                JUNCTION     0.00     0.00    41.15     0  00:00        0.00
  97454                JUNCTION     0.00     0.00    41.10     0  00:00        0.00
  54235                JUNCTION     0.01     0.02     2.84     0  19:51        0.02
  54224                JUNCTION     0.00     0.01     2.27     0  19:51        0.01
  98473                JUNCTION     0.00     0.00    12.64     0  00:00        0.00
  98283                JUNCTION     0.00     0.00    11.77     0  00:00        0.00
  77825                JUNCTION     0.00     0.00    30.11     0  00:00        0.00
  77828                JUNCTION     0.00     0.00    29.73     0  00:00        0.00
  160419               JUNCTION     0.00     0.00    28.58     0  00:00        0.00
  54706                JUNCTION     0.01     0.02    31.39     0  19:35        0.02
  77824                JUNCTION     0.01     0.02    30.55     0  19:35        0.02
  77827                JUNCTION     0.08     0.09    29.88     0  09:27        0.09
  160428               JUNCTION     0.98     1.10    29.88     0  09:15        1.10
  77615                JUNCTION     0.00     0.00    23.98     0  00:00        0.00
  77601                JUNCTION     0.00     0.00    23.46     0  00:00        0.00
  77600                JUNCTION     0.00     0.00    23.21     0  00:00        0.00
  77602                JUNCTION     0.00     0.00    22.50     0  00:00        0.00
  77323                JUNCTION     0.00     0.00    25.05     0  00:00        0.00
  54921                JUNCTION     0.01     0.03    22.58     0  19:40        0.03
  77324                JUNCTION     0.00     0.00    25.05     0  00:00        0.00
  54926                JUNCTION     0.00     0.00    23.20     0  00:00        0.00
  77321                JUNCTION     0.00     0.00    26.88     0  00:00        0.00
  77322                JUNCTION     0.00     0.00    26.85     0  00:00        0.00
  65135                JUNCTION     0.00     0.00    29.80     0  00:00        0.00
  65460                JUNCTION     0.00     0.00    32.31     0  00:00        0.00
  55066                JUNCTION     0.00     0.00    25.08     0  00:00        0.00
  Node_56              JUNCTION     0.31     0.57    24.00     0  23:54        0.57
  55038                JUNCTION     0.00     0.00    26.80     0  00:00        0.00
  55035                JUNCTION     0.00     0.00    26.48     0  00:00        0.00
  55030                JUNCTION     0.00     0.00    26.50     0  00:00        0.00
  55027                JUNCTION     0.01     0.02    26.18     0  19:35        0.02
  54999                JUNCTION     0.01     0.03    24.26     0  19:36        0.03
  54996                JUNCTION     0.01     0.03    23.97     0  19:38        0.03
  54993                JUNCTION     0.06     0.08    23.78     0  19:45        0.08
  54992                JUNCTION     0.01     0.02    23.76     0  19:48        0.02
  54990                JUNCTION     0.00     0.00    24.80     0  00:00        0.00
  55182                JUNCTION     0.00     0.00    23.39     0  00:00        0.00
  54991                JUNCTION     0.00     0.00    25.99     0  00:00        0.00
  54989                JUNCTION     0.00     0.00    24.80     0  00:00        0.00
  55181                JUNCTION     0.02     0.03    23.41     0  10:47        0.03
  54984                JUNCTION     0.01     0.03    23.36     0  19:51        0.03
  54980                JUNCTION     0.00     0.00    26.75     0  00:00        0.00
  54974                JUNCTION     0.00     0.00    24.72     0  00:00        0.00
  54973                JUNCTION     0.02     0.03    23.15     0  19:53        0.03
  54972                JUNCTION     0.01     0.02    23.06     0  19:54        0.02
  54967                JUNCTION     0.00     0.00    23.41     0  00:00        0.00
  54966                JUNCTION     0.00     0.00    22.72     0  00:00        0.00
  55185                JUNCTION     0.00     0.00    25.92     0  00:00        0.00
  54961                JUNCTION     0.05     0.08    24.58     0  19:43        0.08
  54962                JUNCTION     0.02     0.04    24.56     0  19:44        0.04
  54963                JUNCTION     0.01     0.03    28.42     0  19:41        0.03
  54960                JUNCTION     0.01     0.03    26.57     0  19:42        0.03
  54957                JUNCTION     0.02     0.04    24.28     0  19:45        0.04
  54955                JUNCTION     0.01     0.02    23.95     0  19:45        0.02
  159996               JUNCTION     0.01     0.02    22.90     0  19:46        0.02
  54956                JUNCTION     0.00     0.00    23.26     0  00:00        0.00
  78182                JUNCTION     0.01     0.02    23.50     0  19:45        0.02
  161774               JUNCTION     0.02     0.03    21.78     0  10:12        0.03
  54948                JUNCTION     0.07     0.11    21.83     0  10:09        0.11
  137992               JUNCTION     0.84     1.00    20.77     0  10:19        1.00
  159658               JUNCTION     0.00     0.00    21.38     0  00:00        0.00
  54941                JUNCTION     0.00     0.00    22.66     0  00:00        0.00
  153852               JUNCTION     0.00     0.00    21.56     0  00:00        0.00
  592                  JUNCTION     0.00     0.00    21.20     0  00:00        0.00
  54939                JUNCTION     0.00     0.00    22.35     0  00:00        0.00
  55136                JUNCTION     0.00     0.00    22.42     0  00:00        0.00
  54938                JUNCTION     0.00     0.00    22.61     0  00:00        0.00
  54937                JUNCTION     0.00     0.00    22.77     0  00:00        0.00
  54936                JUNCTION     0.00     0.00    23.01     0  00:00        0.00
  54935                JUNCTION     0.00     0.00    22.75     0  00:00        0.00
  54934                JUNCTION     0.00     0.00    22.82     0  00:00        0.00
  54933                JUNCTION     0.00     0.00    21.47     0  00:00        0.00
  54932                JUNCTION     0.00     0.00    21.36     0  00:00        0.00
  54931                JUNCTION     0.00     0.00    20.82     0  00:00        0.00
  55183                JUNCTION     0.00     0.00    16.66     0  00:00        0.00
  54919                JUNCTION     0.01     0.02    23.41     0  19:36        0.02
  54920                JUNCTION     0.00     0.00    23.71     0  00:00        0.00
  54918                JUNCTION     0.00     0.00    23.03     0  00:00        0.00
  54916                JUNCTION     0.00     0.00    22.86     0  00:00        0.00
  54915                JUNCTION     0.00     0.00    21.99     0  00:00        0.00
  98052                JUNCTION     0.00     0.00    20.21     0  00:00        0.00
  Node_52              JUNCTION     0.00     0.01     2.79     0  19:48        0.01
  54626                JUNCTION     0.01     0.01     5.22     0  19:47        0.01
  54625                JUNCTION     0.00     0.00     5.29     0  00:00        0.00
  54230                JUNCTION     0.00     0.00     2.95     0  00:00        0.00
  54737                JUNCTION     0.00     0.01    17.34     0  19:30        0.01
  102099               JUNCTION     0.12     0.14    14.01     0  19:36        0.14
  54725                JUNCTION     0.00     0.00    35.07     0  00:00        0.00
  54726                JUNCTION     0.00     0.00    33.61     0  00:00        0.00
  54724                JUNCTION     0.00     0.00    35.41     0  00:00        0.00
  54727                JUNCTION     0.00     0.00    33.98     0  00:00        0.00
  54246                JUNCTION     0.01     0.01     3.42     0  19:47        0.01
  54257                JUNCTION     0.00     0.00     3.59     0  00:00        0.00
  54232                JUNCTION     0.00     0.00     2.43     0  00:00        0.00
  54231                JUNCTION     0.98     1.14     1.09     0  10:02        1.14
  54229                JUNCTION     0.85     1.00     0.25     0  10:06        1.00
  54228                JUNCTION     0.00     0.01     0.94     0  23:54        0.00
  54251                JUNCTION     0.05     0.09     0.82     0  23:54        0.09
  54263                JUNCTION     0.11     0.20    -1.68     0  23:54        0.18
  54226                JUNCTION     0.00     0.00     1.40     0  19:52        0.00
  54225                JUNCTION     0.00     0.00     2.10     0  19:51        0.00
  82883                JUNCTION     0.00     0.01     2.06     0  19:59        0.01
  54221                JUNCTION     0.00     0.00     2.32     0  00:00        0.00
  54220                JUNCTION     0.14     0.22     0.82     0  23:54        0.22
  73814                JUNCTION     0.02     0.06     0.82     0  23:54        0.06
  54219                JUNCTION     0.01     0.02     1.04     0  19:47        0.02
  54212                JUNCTION     0.00     0.00    17.76     0  00:00        0.00
  54276                JUNCTION     0.00     0.00    17.33     0  00:00        0.00
  54210                JUNCTION     0.00     0.00    18.04     0  00:00        0.00
  54209                JUNCTION     0.00     0.00    17.42     0  00:00        0.00
  54211                JUNCTION     0.01     0.03    18.04     0  19:45        0.03
  54208                JUNCTION     0.68     0.97    18.01     0  19:51        0.97
  54207                JUNCTION     0.00     0.00    16.91     0  00:00        0.00
  54206                JUNCTION     0.00     0.00    16.85     0  00:00        0.00
  138789               JUNCTION     0.90     1.20    18.01     0  15:23        1.20
  54204                JUNCTION     0.00     0.00    13.96     0  00:00        0.00
  54203                JUNCTION     0.00     0.00    11.82     0  00:00        0.00
  54202                JUNCTION     0.00     0.00    10.04     0  00:00        0.00
  138795               JUNCTION     0.00     0.00    12.72     0  00:00        0.00
  138796               JUNCTION     0.00     0.00     7.25     0  00:00        0.00
  83142                JUNCTION     0.00     0.00     8.07     0  00:00        0.00
  54199                JUNCTION     0.00     0.00     7.15     0  00:00        0.00
  Node_51              JUNCTION     0.00     0.00     3.24     0  00:00        0.00
  54196                JUNCTION     0.01     0.02     1.21     0  19:41        0.02
  54195                JUNCTION     0.20     0.24     1.21     0  19:41        0.24
  54193                JUNCTION     0.00     0.00     1.88     0  00:00        0.00
  54248                JUNCTION     0.00     0.00     2.40     0  00:00        0.00
  54191                JUNCTION     0.07     0.12     1.36     0  23:54        0.12
  54190                JUNCTION     0.01     0.02     1.25     0  19:36        0.02
  54171                JUNCTION     0.00     0.00    17.81     0  00:00        0.00
  151886               JUNCTION     0.00     0.00     8.26     0  00:00        0.00
  54170                JUNCTION     0.00     0.00    16.74     0  00:00        0.00
  Node_50              JUNCTION     0.00     0.00     9.23     0  00:00        0.00
  83039                JUNCTION     0.00     0.00     3.66     0  00:00        0.00
  73812                JUNCTION     0.00     0.00     2.17     0  00:00        0.00
  54241                JUNCTION     0.00     0.00    15.52     0  00:00        0.00
  54167                JUNCTION     0.00     0.00     8.51     0  00:00        0.00
  54168                JUNCTION     0.00     0.00     6.32     0  00:00        0.00
  54166                JUNCTION     0.00     0.00    10.44     0  00:00        0.00
  Node_49              JUNCTION     0.00     0.00     7.71     0  00:00        0.00
  54163                JUNCTION     0.00     0.00     3.56     0  00:00        0.00
  54164                JUNCTION     0.00     0.00     0.24     0  00:00        0.00
  54160                JUNCTION     0.00     0.00     4.61     0  00:00        0.00
  54161                JUNCTION     0.00     0.00     4.35     0  00:00        0.00
  Node_48              JUNCTION     0.00     0.00     5.13     0  00:00        0.00
  54159                JUNCTION     0.00     0.00     3.16     0  00:00        0.00
  54158                JUNCTION     0.00     0.00     1.87     0  00:00        0.00
  54156                JUNCTION     0.00     0.00     6.71     0  00:00        0.00
  54157                JUNCTION     0.00     0.00     3.38     0  00:00        0.00
  82848                JUNCTION     0.00     0.00    12.28     0  00:00        0.00
  54152                JUNCTION     0.00     0.00    13.72     0  00:00        0.00
  Node_47              JUNCTION     0.00     0.00    13.76     0  00:00        0.00
  54151                JUNCTION     0.00     0.00    14.63     0  00:00        0.00
  54149                JUNCTION     0.00     0.00    18.15     0  00:00        0.00
  54147                JUNCTION     0.00     0.00    19.70     0  00:00        0.00
  54145                JUNCTION     0.00     0.00    20.77     0  00:00        0.00
  54143                JUNCTION     0.00     0.00    23.09     0  00:00        0.00
  54139                JUNCTION     0.00     0.00    28.40     0  00:00        0.00
  Node_46              JUNCTION     0.00     0.00    26.58     0  00:00        0.00
  98207                JUNCTION     0.00     0.00    21.25     0  00:00        0.00
  98206                JUNCTION     0.00     0.00    21.99     0  00:00        0.00
  98051                JUNCTION     0.00     0.00    19.81     0  00:00        0.00
  98203                JUNCTION     0.00     0.00    20.32     0  00:00        0.00
  Node_1               JUNCTION     0.00     0.00     6.72     0  00:00        0.00
  98050                JUNCTION     0.00     0.00    20.35     0  00:00        0.00
  98205                JUNCTION     0.00     0.00    21.99     0  00:00        0.00
  78189                JUNCTION     0.08     0.18    24.00     0  23:54        0.18
  78694                JUNCTION     0.06     0.16    24.00     0  23:54        0.16
  78655                JUNCTION     0.00     0.00     2.84     0  00:00        0.00
  78659                JUNCTION     0.00     0.00     2.38     0  00:00        0.00
  78656                JUNCTION     0.00     0.00     3.43     0  00:00        0.00
  78657                JUNCTION     0.00     0.00     4.38     0  00:00        0.00
  78663                JUNCTION     0.00     0.00    -2.08     0  00:00        0.00
  78653                JUNCTION     0.00     0.00     0.13     0  00:00        0.00
  78654                JUNCTION     0.00     0.00     1.45     0  00:00        0.00
  Node_125             JUNCTION     0.00     0.00    24.35     0  00:00        0.00
  78490                JUNCTION     0.00     0.00    24.23     0  00:00        0.00
  79525                JUNCTION     0.00     0.00    24.46     0  00:00        0.00
  78491                JUNCTION     0.00     0.00    24.26     0  00:00        0.00
  78488                JUNCTION     0.00     0.00    24.12     0  00:00        0.00
  78489                JUNCTION     0.00     0.00    24.17     0  00:00        0.00
  78455                JUNCTION     0.00     0.00    24.05     0  00:00        0.00
  78454                JUNCTION     0.01     0.02    24.04     0  19:37        0.02
  78355                JUNCTION     0.00     0.00    23.88     0  00:00        0.00
  78356                JUNCTION     0.13     0.21    24.00     0  23:54        0.21
  78191                JUNCTION     0.00     0.00    23.97     0  00:00        0.00
  78192                JUNCTION     0.04     0.11    24.00     0  23:54        0.11
  78190                JUNCTION     0.00     0.00    23.90     0  00:00        0.00
  78693                JUNCTION     0.00     0.00    23.97     0  00:00        0.00
  78187                JUNCTION     0.00     0.00    23.40     0  00:00        0.00
  78188                JUNCTION     0.32     0.58    24.00     0  23:54        0.58
  78186                JUNCTION     0.37     0.64    24.00     0  23:54        0.64
  78185                JUNCTION     0.00     0.00    23.24     0  00:00        0.00
  78203                JUNCTION     0.46     0.75    24.00     0  23:54        0.75
  78184                JUNCTION     0.00     0.00    23.69     0  00:00        0.00
  78085                JUNCTION     0.00     0.00    43.47     0  00:00        0.00
  56281                JUNCTION     0.00     0.00    42.13     0  00:00        0.00
  56416                JUNCTION     0.00     0.00    44.10     0  00:00        0.00
  77930                JUNCTION     0.03     0.04    37.05     0  10:24        0.04
  78002                JUNCTION     1.04     1.24    37.05     0  10:16        1.24
  77932                JUNCTION     0.00     0.00    37.87     0  00:00        0.00
  77931                JUNCTION     0.00     0.00    37.96     0  00:00        0.00
  77934                JUNCTION     0.00     0.00    38.89     0  00:00        0.00
  97813                JUNCTION     0.00     0.00    43.57     0  00:00        0.00
  97723                JUNCTION     0.00     0.00    43.73     0  00:00        0.00
  97816                JUNCTION     0.00     0.00    43.56     0  00:00        0.00
  97724                JUNCTION     0.00     0.00    43.57     0  00:00        0.00
  97725                JUNCTION     0.00     0.00    43.68     0  00:00        0.00
  77937                JUNCTION     0.00     0.00    42.83     0  00:00        0.00
  159550               JUNCTION     0.00     0.00    40.33     0  00:00        0.00
  77927                JUNCTION     0.00     0.00    45.65     0  00:00        0.00
  77924                JUNCTION     0.01     0.01    45.41     0  19:35        0.01
  77942                JUNCTION     0.01     0.02    44.79     0  19:37        0.02
  77943                JUNCTION     0.01     0.03    44.68     0  19:41        0.03
  55867                JUNCTION     0.01     0.01    44.52     0  19:44        0.01
  Node_59              JUNCTION     0.01     0.02    43.94     0  19:41        0.02
  77938                JUNCTION     0.01     0.02    44.86     0  19:35        0.02
  77318                JUNCTION     0.00     0.00    28.70     0  00:00        0.00
  77319                JUNCTION     0.00     0.00    28.67     0  00:00        0.00
  76883                JUNCTION     0.01     0.02    23.12     0  19:31        0.02
  54521                JUNCTION     0.02     0.03    19.54     0  19:34        0.03
  76879                JUNCTION     0.00     0.00    23.07     0  00:00        0.00
  54522                JUNCTION     0.00     0.00    19.75     0  00:00        0.00
  96127                JUNCTION     0.00     0.00    40.13     0  00:00        0.00
  97189                JUNCTION     0.00     0.00    39.93     0  00:00        0.00
  97185                JUNCTION     0.00     0.00    40.22     0  00:00        0.00
  97175                JUNCTION     0.00     0.00    39.84     0  00:00        0.00
  93799                JUNCTION     0.00     0.00    37.32     0  00:00        0.00
  97173                JUNCTION     0.00     0.00    39.82     0  00:00        0.00
  93798                JUNCTION     0.00     0.00    37.54     0  00:00        0.00
  153728               JUNCTION     0.00     0.01    12.37     0  19:37        0.01
  101831               JUNCTION     0.00     0.01    11.99     0  19:37        0.01
  96126                JUNCTION     0.00     0.00    40.46     0  00:00        0.00
  96207                JUNCTION     0.00     0.00    12.08     0  00:00        0.00
  91924                JUNCTION     0.01     0.02    10.01     0  19:35        0.02
  101833               JUNCTION     0.00     0.01    11.54     0  19:38        0.01
  91925                JUNCTION     0.01     0.01    10.08     0  19:36        0.01
  95681                JUNCTION     0.01     0.02    36.80     0  20:06        0.02
  95683                JUNCTION     0.42     0.76    36.18     0  20:33        0.76
  95493                JUNCTION     0.00     0.00    39.21     0  00:00        0.00
  94274                JUNCTION     0.00     0.00    38.43     0  00:00        0.00
  95487                JUNCTION     0.00     0.00    41.20     0  00:00        0.00
  94231                JUNCTION     0.00     0.00    38.20     0  00:00        0.00
  148988               JUNCTION     0.00     0.00    29.42     0  00:00        0.00
  56243                JUNCTION     0.00     0.00    29.01     0  00:00        0.00
  93770                JUNCTION     0.00     0.00    36.94     0  00:00        0.00
  93774                JUNCTION     0.00     0.00    37.53     0  00:00        0.00
  93763                JUNCTION     0.13     0.16    36.90     0  19:46        0.16
  93766                JUNCTION     0.18     0.20    37.11     0  19:35        0.20
  93762                JUNCTION     0.01     0.03    36.90     0  19:46        0.03
  93738                JUNCTION     0.01     0.02    37.11     0  19:35        0.02
  55881                JUNCTION     0.01     0.03    37.21     0  19:45        0.03
  55758                JUNCTION     0.00     0.00    40.60     0  00:00        0.00
  92884                JUNCTION     0.00     0.00    17.46     0  00:00        0.00
  92890                JUNCTION     0.00     0.00    19.31     0  00:00        0.00
  92891                JUNCTION     0.00     0.00    19.45     0  00:00        0.00
  92881                JUNCTION     0.00     0.00    17.79     0  00:00        0.00
  91936                JUNCTION     0.00     0.00    11.72     0  00:00        0.00
  101830               JUNCTION     0.01     0.01     8.75     0  19:38        0.01
  90197                JUNCTION     0.01     0.01     7.66     0  19:40        0.01
  90329                JUNCTION     0.00     0.00    17.37     0  00:00        0.00
  90454                JUNCTION     0.00     0.00    24.15     0  00:00        0.00
  90289                JUNCTION     0.00     0.00    16.71     0  00:00        0.00
  54631                JUNCTION     0.00     0.01    15.89     0  19:45        0.01
  90195                JUNCTION     0.01     0.02     7.06     0  19:43        0.02
  90193                JUNCTION     0.01     0.01     5.92     0  19:45        0.01
  90194                JUNCTION     0.01     0.03     7.19     0  19:36        0.03
  90192                JUNCTION     0.01     0.02     5.60     0  19:38        0.02
  90196                JUNCTION     0.01     0.02     7.58     0  19:37        0.02
  75325                JUNCTION     0.01     0.02     8.98     0  19:35        0.02
  Node_116             JUNCTION     0.01     0.01     8.45     0  19:35        0.01
  73868                JUNCTION     0.01     0.01    23.89     0  19:34        0.01
  836                  JUNCTION     0.01     0.01     7.74     0  19:35        0.01
  54663                JUNCTION     0.01     0.01     8.03     0  19:35        0.01
  83809                JUNCTION     0.01     0.02     5.15     0  19:40        0.02
  74564                JUNCTION     0.00     0.00    27.04     0  00:00        0.00
  84078                JUNCTION     0.00     0.00     8.06     0  00:00        0.00
  65100                JUNCTION     0.00     0.00     8.57     0  00:00        0.00
  54730                JUNCTION     0.00     0.01     0.60     0  19:40        0.01
  73894                JUNCTION     0.58     1.00    -1.29     0  19:20        1.00
  73877                JUNCTION     0.01     0.02    35.36     0  19:31        0.02
  73876                JUNCTION     0.01     0.01    33.43     0  19:31        0.01
  73875                JUNCTION     0.01     0.01    31.66     0  19:31        0.01
  73874                JUNCTION     0.01     0.02    27.19     0  19:32        0.02
  73872                JUNCTION     0.01     0.02    24.47     0  19:33        0.02
  73873                JUNCTION     0.00     0.00    27.23     0  00:00        0.00
  73871                JUNCTION     0.00     0.00    24.62     0  00:00        0.00
  776                  JUNCTION     0.00     0.00    16.93     0  00:00        0.00
  73857                JUNCTION     0.00     0.00    24.22     0  00:00        0.00
  73856                JUNCTION     0.00     0.00    24.90     0  00:00        0.00
  73855                JUNCTION     0.00     0.00    24.06     0  00:00        0.00
  73854                JUNCTION     0.00     0.00    22.39     0  00:00        0.00
  73847                JUNCTION     0.00     0.00    15.17     0  00:00        0.00
  73848                JUNCTION     0.00     0.00    15.11     0  00:00        0.00
  73851                JUNCTION     0.00     0.00    11.52     0  00:00        0.00
  73846                JUNCTION     0.00     0.00    13.47     0  00:00        0.00
  73816                JUNCTION     0.00     0.00     0.24     0  00:00        0.00
  73817                JUNCTION     0.00     0.00     2.34     0  00:00        0.00
  89486                JUNCTION     0.00     0.00    12.40     0  00:00        0.00
  89671                JUNCTION     0.00     0.00     9.22     0  00:00        0.00
  89659                JUNCTION     0.00     0.00    18.64     0  00:00        0.00
  89653                JUNCTION     0.00     0.00    16.93     0  00:00        0.00
  89658                JUNCTION     0.00     0.00    18.66     0  00:00        0.00
  89652                JUNCTION     0.00     0.00    16.96     0  00:00        0.00
  89546                JUNCTION     0.00     0.00    16.26     0  00:00        0.00
  89545                JUNCTION     0.00     0.00    16.28     0  00:00        0.00
  89627                JUNCTION     0.00     0.00    19.45     0  00:00        0.00
  89629                JUNCTION     0.00     0.00    19.39     0  00:00        0.00
  89550                JUNCTION     0.00     0.00    18.89     0  00:00        0.00
  89551                JUNCTION     0.00     0.00    18.86     0  00:00        0.00
  89537                JUNCTION     0.00     0.00    15.53     0  00:00        0.00
  89538                JUNCTION     0.00     0.00    15.34     0  00:00        0.00
  89485                JUNCTION     0.00     0.00    12.21     0  00:00        0.00
  89447                JUNCTION     0.00     0.00    10.42     0  00:00        0.00
  89434                JUNCTION     0.00     0.00    46.64     0  00:00        0.00
  89435                JUNCTION     0.00     0.00    46.82     0  00:00        0.00
  89433                JUNCTION     0.00     0.00    46.61     0  00:00        0.00
  89370                JUNCTION     0.00     0.00    46.07     0  00:00        0.00
  89369                JUNCTION     0.00     0.00    44.88     0  00:00        0.00
  89193                JUNCTION     0.00     0.00    43.79     0  00:00        0.00
  88967                JUNCTION     0.00     0.00    40.27     0  00:00        0.00
  89074                JUNCTION     0.00     0.00     9.03     0  00:00        0.00
  89076                JUNCTION     0.00     0.00     8.74     0  00:00        0.00
  88956                JUNCTION     0.00     0.00    38.52     0  00:00        0.00
  88955                JUNCTION     0.00     0.00    37.02     0  00:00        0.00
  89498                JUNCTION     0.00     0.00    38.93     0  00:00        0.00
  88080                JUNCTION     0.00     0.00    38.76     0  00:00        0.00
  88369                JUNCTION     0.00     0.01    24.19     0  20:41        0.01
  88488                JUNCTION     0.04     0.15    24.14     0  23:54        0.15
  88359                JUNCTION     0.00     0.01    24.22     0  20:41        0.01
  Node_55              JUNCTION     0.00     0.01    24.30     0  20:41        0.01
  88363                JUNCTION     0.01     0.03    24.18     0  20:42        0.03
  88357                JUNCTION     0.00     0.01    24.18     0  20:42        0.01
  87738                JUNCTION     0.01     0.03    24.09     0  20:45        0.03
  88194                JUNCTION     0.00     0.00    35.78     0  00:00        0.00
  88231                JUNCTION     0.00     0.00    35.88     0  00:00        0.00
  88232                JUNCTION     0.15     0.35    36.18     0  20:33        0.35
  88192                JUNCTION     0.01     0.02    36.18     0  20:34        0.02
  85562                JUNCTION     0.03     0.11    35.97     0  23:54        0.11
  88176                JUNCTION     0.00     0.01    35.50     0  20:36        0.01
  88175                JUNCTION     0.00     0.00    35.17     0  00:00        0.00
  88105                JUNCTION     0.00     0.01    33.33     0  20:37        0.01
  88104                JUNCTION     0.01     0.01    33.14     0  19:32        0.01
  88040                JUNCTION     0.00     0.00    38.30     0  00:00        0.00
  88081                JUNCTION     0.00     0.00    38.60     0  00:00        0.00
  88041                JUNCTION     0.00     0.00    38.16     0  00:00        0.00
  88029                JUNCTION     0.00     0.01    30.97     0  20:38        0.01
  88027                JUNCTION     0.01     0.01    30.97     0  19:34        0.01
  87667                JUNCTION     0.00     0.00    14.81     0  00:00        0.00
  86026                JUNCTION     0.03     0.04    12.55     0  19:40        0.04
  87569                JUNCTION     0.00     0.00    37.71     0  00:00        0.00
  87415                JUNCTION     0.00     0.00    36.33     0  00:00        0.00
  87562                JUNCTION     0.00     0.00    37.28     0  00:00        0.00
  87375                JUNCTION     0.02     0.04    35.82     0  19:44        0.04
  101259               JUNCTION     0.01     0.03    35.67     0  19:44        0.03
  55744                JUNCTION     0.00     0.00    36.29     0  00:00        0.00
  Node_58              JUNCTION     0.01     0.02    36.00     0  19:46        0.02
  Node_57              JUNCTION     0.01     0.02    35.90     0  19:36        0.02
  129260               JUNCTION     0.00     0.01    37.07     0  19:36        0.01
  87377                JUNCTION     0.87     1.20    37.06     0  12:22        1.20
  87221                JUNCTION     0.00     0.00    36.40     0  00:00        0.00
  87176                JUNCTION     0.00     0.00    40.18     0  00:00        0.00
  87170                JUNCTION     0.00     0.00    40.17     0  00:00        0.00
  54701                JUNCTION     0.02     0.03    39.10     0  19:38        0.03
  87164                JUNCTION     0.00     0.00    40.97     0  00:00        0.00
  87142                JUNCTION     0.00     0.00    24.14     0  23:54        0.00
  87138                JUNCTION     0.00     0.01    24.08     0  20:45        0.01
  87137                JUNCTION     0.00     0.01    23.87     0  20:48        0.01
  87125                JUNCTION     0.00     0.01    23.12     0  20:55        0.01
  86815                JUNCTION     0.00     0.01    16.94     0  21:05        0.01
  86801                JUNCTION     0.00     0.01    24.27     0  19:36        0.01
  86811                JUNCTION     0.01     0.02    24.88     0  19:35        0.02
  86810                JUNCTION     0.00     0.00    25.12     0  00:00        0.00
  86032                JUNCTION     0.00     0.00    19.34     0  00:00        0.00
  86030                JUNCTION     0.00     0.00    16.61     0  00:00        0.00
  85947                JUNCTION     0.00     0.00    37.14     0  00:00        0.00
  85946                JUNCTION     0.00     0.00    37.16     0  00:00        0.00
  85563                JUNCTION     0.00     0.00    35.85     0  00:00        0.00
  85672                JUNCTION     0.00     0.00     6.65     0  00:00        0.00
  85671                JUNCTION     0.00     0.00     4.01     0  00:00        0.00
  85666                JUNCTION     0.00     0.00     3.30     0  00:00        0.00
  83008                JUNCTION     0.00     0.00     2.09     0  00:00        0.00
  84489                JUNCTION     0.01     0.01    12.55     0  19:40        0.01
  84626                JUNCTION     0.00     0.00    12.61     0  00:00        0.00
  84625                JUNCTION     0.00     0.00    11.51     0  00:00        0.00
  84189                JUNCTION     0.00     0.00     9.52     0  00:00        0.00
  84487                JUNCTION     0.00     0.00     9.73     0  00:00        0.00
  101206               JUNCTION     0.00     0.00     3.57     0  00:00        0.00
  84079                JUNCTION     0.00     0.00     8.42     0  00:00        0.00
  84027                JUNCTION     0.01     0.01     9.95     0  19:42        0.01
  65422                JUNCTION     0.00     0.00    36.48     0  00:00        0.00
  65420                JUNCTION     0.00     0.00    44.74     0  00:00        0.00
  160169               JUNCTION     0.00     0.00    43.84     0  00:00        0.00
  65402                JUNCTION     0.00     0.00    42.56     0  00:00        0.00
  65423                JUNCTION     0.00     0.00    36.41     0  00:00        0.00
  65398                JUNCTION     0.00     0.00    46.23     0  00:00        0.00
  83964                JUNCTION     0.28     0.33     7.93     0  19:38        0.33
  83810                JUNCTION     0.01     0.02     7.93     0  19:39        0.02
  83961                JUNCTION     0.01     0.03     8.06     0  19:36        0.03
  83820                JUNCTION     0.62     1.00    -1.20     0  21:08        1.00
  65205                JUNCTION     0.01     0.02    34.92     0  19:31        0.02
  65201                JUNCTION     0.01     0.02    33.65     0  19:33        0.02
  65197                JUNCTION     0.01     0.03    50.98     0  19:34        0.03
  65200                JUNCTION     0.78     0.93    50.40     0  09:33        0.91
  65196                JUNCTION     0.00     0.00    50.76     0  00:00        0.00
  65198                JUNCTION     0.16     0.51    49.84     0  22:35        0.51
  65195                JUNCTION     0.01     0.02    51.87     0  19:30        0.02
  65193                JUNCTION     0.00     0.00    51.49     0  00:00        0.00
  65190                JUNCTION     0.00     0.00    51.81     0  00:00        0.00
  65192                JUNCTION     0.00     0.00    52.45     0  00:00        0.00
  65189                JUNCTION     0.00     0.00    51.65     0  00:00        0.00
  65191                JUNCTION     0.00     0.00    52.17     0  00:00        0.00
  65187                JUNCTION     0.00     0.00    52.25     0  00:00        0.00
  65183                JUNCTION     0.00     0.00    52.08     0  00:00        0.00
  65181                JUNCTION     0.00     0.00    50.34     0  00:00        0.00
  65180                JUNCTION     1.06     1.20    50.37     0  09:33        1.20
  65178                JUNCTION     0.60     1.00    49.81     0  22:29        1.00
  65177                JUNCTION     0.00     0.00    49.02     0  00:00        0.00
  65448                JUNCTION     0.00     0.00    46.97     0  00:00        0.00
  65160                JUNCTION     0.00     0.00    47.07     0  00:00        0.00
  65159                JUNCTION     0.00     0.00    46.51     0  00:00        0.00
  65390                JUNCTION     0.00     0.00    45.40     0  00:00        0.00
  65158                JUNCTION     0.00     0.00    43.12     0  00:00        0.00
  65157                JUNCTION     0.00     0.00    39.90     0  00:00        0.00
  65156                JUNCTION     0.00     0.00    37.41     0  00:00        0.00
  151964               JUNCTION     0.00     0.00    36.53     0  00:00        0.00
  65153                JUNCTION     0.01     0.01    34.57     0  19:33        0.01
  65152                JUNCTION     0.00     0.00    34.89     0  00:00        0.00
  65151                JUNCTION     0.00     0.00    33.33     0  00:00        0.00
  65147                JUNCTION     0.00     0.00    29.95     0  00:00        0.00
  65146                JUNCTION     0.01     0.01    30.10     0  19:35        0.01
  65145                JUNCTION     0.00     0.00    27.15     0  00:00        0.00
  65144                JUNCTION     0.01     0.03    27.12     0  19:35        0.03
  65142                JUNCTION     0.01     0.02    25.78     0  19:37        0.02
  65141                JUNCTION     0.01     0.03    25.70     0  19:38        0.03
  65140                JUNCTION     0.00     0.00    35.09     0  00:00        0.00
  65139                JUNCTION     0.00     0.00    35.14     0  00:00        0.00
  65136                JUNCTION     0.01     0.01    32.46     0  19:35        0.01
  65134                JUNCTION     0.00     0.00    36.27     0  00:00        0.00
  65133                JUNCTION     0.00     0.00    38.18     0  00:00        0.00
  65131                JUNCTION     0.00     0.00    22.50     0  00:00        0.00
  65129                JUNCTION     0.00     0.00    25.13     0  00:00        0.00
  83063                JUNCTION     0.00     0.00     7.75     0  00:00        0.00
  83041                JUNCTION     0.00     0.00     6.47     0  00:00        0.00
  83040                JUNCTION     0.00     0.00     4.50     0  00:00        0.00
  83014                JUNCTION     0.00     0.00     6.00     0  00:00        0.00
  83016                JUNCTION     0.00     0.00     6.29     0  00:00        0.00
  83013                JUNCTION     0.00     0.00     2.88     0  00:00        0.00
  Node_53              JUNCTION     0.00     0.00     2.50     0  00:00        0.00
  65444                JUNCTION     0.00     0.00    23.46     0  00:00        0.00
  65130                JUNCTION     0.00     0.00    30.84     0  00:00        0.00
  65128                JUNCTION     0.00     0.00    25.23     0  00:00        0.00
  65124                JUNCTION     0.00     0.00    23.63     0  00:00        0.00
  65123                JUNCTION     0.00     0.00    23.46     0  00:00        0.00
  65125                JUNCTION     0.00     0.00    23.36     0  00:00        0.00
  65122                JUNCTION     0.00     0.00    22.53     0  00:00        0.00
  65121                JUNCTION     0.00     0.00    23.37     0  00:00        0.00
  65120                JUNCTION     0.00     0.00    21.89     0  00:00        0.00
  65119                JUNCTION     0.00     0.00    21.71     0  00:00        0.00
  65118                JUNCTION     0.00     0.00    20.64     0  00:00        0.00
  65117                JUNCTION     0.00     0.00    21.02     0  00:00        0.00
  65116                JUNCTION     0.00     0.00    20.54     0  00:00        0.00
  65416                JUNCTION     0.01     0.01    19.93     0  19:39        0.01
  65115                JUNCTION     0.00     0.00    20.91     0  00:00        0.00
  65114                JUNCTION     0.01     0.01    19.86     0  19:40        0.01
  65113                JUNCTION     0.01     0.01    24.83     0  19:39        0.01
  65111                JUNCTION     0.01     0.02    24.47     0  19:38        0.02
  65108                JUNCTION     0.87     1.00     7.08     0  09:36        1.00
  139113               JUNCTION     0.73     0.88     6.76     0  10:11        0.88
  65110                JUNCTION     0.85     1.00     6.75     0  10:11        1.00
  65107                JUNCTION     0.01     0.01     5.70     0  19:40        0.01
  65415                JUNCTION     1.06     1.22    -0.89     0  09:39        1.22
  65105                JUNCTION     0.00     0.00     7.45     0  00:00        0.00
  139107               JUNCTION     0.00     0.00     7.20     0  00:00        0.00
  65103                JUNCTION     0.00     0.00     5.03     0  00:00        0.00
  65104                JUNCTION     0.00     0.00     7.11     0  00:00        0.00
  65102                JUNCTION     0.00     0.00     8.38     0  00:00        0.00
  65101                JUNCTION     0.00     0.00     8.24     0  00:00        0.00
  64763                JUNCTION     0.01     0.03    53.23     0  19:38        0.03
  64793                JUNCTION     0.01     0.03    52.51     0  19:39        0.03
  64756                JUNCTION     0.01     0.02    48.72     0  19:41        0.02
  55823                JUNCTION     0.01     0.02    45.99     0  19:42        0.02
  64737                JUNCTION     0.00     0.00    52.63     0  00:00        0.00
  64736                JUNCTION     0.00     0.00    52.52     0  00:00        0.00
  64738                JUNCTION     0.00     0.00    52.65     0  00:00        0.00
  64735                JUNCTION     0.00     0.00    52.35     0  00:00        0.00
  64734                JUNCTION     0.88     1.00    51.94     0  09:24        1.00
  64733                JUNCTION     0.00     0.00    51.13     0  00:00        0.00
  64626                JUNCTION     0.00     0.00    50.15     0  00:00        0.00
  145989               JUNCTION     0.90     1.05    51.97     0  09:24        1.02
  64624                JUNCTION     0.00     0.00    49.83     0  00:00        0.00
  64625                JUNCTION     0.00     0.00    50.53     0  00:00        0.00
  64623                JUNCTION     0.00     0.00    49.31     0  00:00        0.00
  64616                JUNCTION     0.00     0.00    47.38     0  00:00        0.00
  64612                JUNCTION     0.00     0.00    47.18     0  00:00        0.00
  55790                JUNCTION     0.00     0.00    46.40     0  00:00        0.00
  64611                JUNCTION     0.00     0.00    47.52     0  00:00        0.00
  55880                JUNCTION     0.00     0.00    47.02     0  00:00        0.00
  155986               JUNCTION     0.00     0.00    47.33     0  00:00        0.00
  64610                JUNCTION     0.00     0.00    47.35     0  00:00        0.00
  64609                JUNCTION     0.00     0.00    47.40     0  00:00        0.00
  64607                JUNCTION     0.00     0.00    50.31     0  00:00        0.00
  64606                JUNCTION     0.00     0.00    52.81     0  00:00        0.00
  64605                JUNCTION     0.00     0.00    52.44     0  00:00        0.00
  156299               JUNCTION     0.00     0.00    60.24     0  00:00        0.00
  64603                JUNCTION     0.01     0.02    57.80     0  19:35        0.02
  80681                JUNCTION     0.01     0.02    58.42     0  19:32        0.02
  2700                 JUNCTION     0.01     0.03    56.61     0  19:41        0.03
  64602                JUNCTION     0.01     0.02    56.19     0  19:43        0.02
  82860                JUNCTION     0.00     0.00     0.47     0  00:00        0.00
  54165                JUNCTION     0.00     0.00     7.41     0  00:00        0.00
  82904                JUNCTION     0.00     0.00     5.48     0  00:00        0.00
  83037                JUNCTION     0.00     0.00     4.85     0  00:00        0.00
  Node_134             JUNCTION     0.00     0.00     5.41     0  00:00        0.00
  82905                JUNCTION     0.00     0.00     5.42     0  00:00        0.00
  82895                JUNCTION     0.00     0.00    15.04     0  00:00        0.00
  82865                JUNCTION     0.00     0.00    13.66     0  00:00        0.00
  82894                JUNCTION     0.00     0.00    15.05     0  00:00        0.00
  82851                JUNCTION     0.00     0.00    14.07     0  00:00        0.00
  82836                JUNCTION     0.00     0.00    -1.53     0  00:00        0.00
  82428                JUNCTION     0.00     0.00    13.46     0  00:00        0.00
  82427                JUNCTION     0.00     0.00    -1.70     0  00:00        0.00
  81434                JUNCTION     0.00     0.00     5.63     0  00:00        0.00
  81436                JUNCTION     0.00     0.00    12.22     0  00:00        0.00
  64571                JUNCTION     0.00     0.00    62.33     0  00:00        0.00
  64565                JUNCTION     0.00     0.00    60.52     0  00:00        0.00
  64562                JUNCTION     0.01     0.02    57.83     0  19:33        0.02
  64561                JUNCTION     0.01     0.02    56.33     0  19:35        0.02
  64556                JUNCTION     0.01     0.02    55.33     0  19:36        0.02
  64555                JUNCTION     0.01     0.03    54.80     0  19:39        0.03
  64554                JUNCTION     0.01     0.03    54.22     0  19:40        0.03
  64552                JUNCTION     0.01     0.03    50.97     0  19:40        0.03
  80438                JUNCTION     0.00     0.00    42.20     0  00:00        0.00
  80441                JUNCTION     0.00     0.00    41.15     0  00:00        0.00
  80436                JUNCTION     0.00     0.00    37.11     0  00:00        0.00
  80434                JUNCTION     0.01     0.02    36.13     0  19:30        0.02
  80437                JUNCTION     0.00     0.00    41.18     0  00:00        0.00
  80440                JUNCTION     0.00     0.00    37.16     0  00:00        0.00
  80435                JUNCTION     0.00     0.00    36.01     0  00:00        0.00
  80442                JUNCTION     0.00     0.00    34.05     0  00:00        0.00
  79552                JUNCTION     0.00     0.00    55.92     0  00:00        0.00
  79551                JUNCTION     0.00     0.00    55.76     0  00:00        0.00
  79548                JUNCTION     0.00     0.00    55.90     0  00:00        0.00
  79550                JUNCTION     0.00     0.00    55.80     0  00:00        0.00
  79549                JUNCTION     0.00     0.00    55.31     0  00:00        0.00
  79545                JUNCTION     0.00     0.00    53.84     0  00:00        0.00
  Node_133             JUNCTION     0.00     0.00    53.98     0  00:00        0.00
  79544                JUNCTION     0.00     0.00    53.75     0  00:00        0.00
  79559                JUNCTION     0.00     0.00    53.16     0  00:00        0.00
  Node_132             JUNCTION     0.00     0.00    54.04     0  00:00        0.00
  79558                JUNCTION     0.00     0.00    53.17     0  00:00        0.00
  79524                JUNCTION     0.00     0.00    24.40     0  00:00        0.00
  Node_129             JUNCTION     0.00     0.00    24.36     0  00:00        0.00
  79523                JUNCTION     0.00     0.00    24.47     0  00:00        0.00
  79481                JUNCTION     0.00     0.00    47.82     0  00:00        0.00
  902                  JUNCTION     0.00     0.00    46.49     0  00:00        0.00
  56412                JUNCTION     0.01     0.02    39.22     0  19:32        0.02
  55929                JUNCTION     0.01     0.02    37.92     0  19:35        0.02
  56410                JUNCTION     0.00     0.00    40.66     0  00:00        0.00
  55742                JUNCTION     0.00     0.00    37.86     0  00:00        0.00
  55186                JUNCTION     0.88     1.00    22.76     0  09:21        1.00
  56267                JUNCTION     0.01     0.02    26.06     0  19:35        0.02
  56266                JUNCTION     0.00     0.00    26.30     0  00:00        0.00
  56263                JUNCTION     0.00     0.00    27.19     0  00:00        0.00
  55067                JUNCTION     0.00     0.00    25.51     0  00:00        0.00
  56261                JUNCTION     0.00     0.00    26.00     0  00:00        0.00
  55950                JUNCTION     0.00     0.00    34.09     0  00:00        0.00
  56244                JUNCTION     0.00     0.00    32.20     0  00:00        0.00
  56242                JUNCTION     0.00     0.00    27.02     0  00:00        0.00
  54965                JUNCTION     0.00     0.00    25.69     0  00:00        0.00
  54707                JUNCTION     0.00     0.00    30.63     0  00:00        0.00
  55946                JUNCTION     0.00     0.00    31.23     0  00:00        0.00
  56224                JUNCTION     0.00     0.00    30.25     0  00:00        0.00
  56516                JUNCTION     0.00     0.00    36.14     0  00:00        0.00
  56515                JUNCTION     0.00     0.00    35.76     0  00:00        0.00
  56495                JUNCTION     0.00     0.00    44.21     0  00:00        0.00
  56546                JUNCTION     0.00     0.00    42.83     0  00:00        0.00
  56492                JUNCTION     0.00     0.00    42.29     0  00:00        0.00
  56494                JUNCTION     0.00     0.00    41.50     0  00:00        0.00
  56491                JUNCTION     0.00     0.00    43.09     0  00:00        0.00
  56487                JUNCTION     0.00     0.00    41.35     0  00:00        0.00
  56511                JUNCTION     0.00     0.00    39.42     0  00:00        0.00
  56485                JUNCTION     0.00     0.00    29.86     0  00:00        0.00
  56531                JUNCTION     0.00     0.00    29.03     0  00:00        0.00
  56486                JUNCTION     0.00     0.00    29.88     0  00:00        0.00
  56517                JUNCTION     0.00     0.00    36.68     0  00:00        0.00
  56484                JUNCTION     0.00     0.00    36.72     0  00:00        0.00
  56471                JUNCTION     0.01     0.02    37.44     0  19:32        0.02
  56468                JUNCTION     0.03     0.05    27.58     0  19:38        0.05
  56522                JUNCTION     0.00     0.00    45.56     0  00:00        0.00
  56451                JUNCTION     0.00     0.00    44.16     0  00:00        0.00
  56449                JUNCTION     0.00     0.00    42.47     0  00:00        0.00
  56420                JUNCTION     0.00     0.00    45.22     0  00:00        0.00
  56419                JUNCTION     0.00     0.00    44.41     0  00:00        0.00
  56417                JUNCTION     0.00     0.00    44.08     0  00:00        0.00
  56415                JUNCTION     0.00     0.00    41.62     0  00:00        0.00
  56411                JUNCTION     0.00     0.00    40.45     0  00:00        0.00
  56493                JUNCTION     0.00     0.00    43.12     0  00:00        0.00
  56361                JUNCTION     0.00     0.01    31.48     0  19:42        0.01
  79526                JUNCTION     0.77     1.00    24.16     0  11:54        1.00
  56352                JUNCTION     0.00     0.00    36.51     0  00:00        0.00
  153264               JUNCTION     0.00     0.00    27.30     0  00:00        0.00
  152226               JUNCTION     0.00     0.00    37.60     0  00:00        0.00
  56349                JUNCTION     0.00     0.00    38.34     0  00:00        0.00
  56347                JUNCTION     0.00     0.00    38.01     0  00:00        0.00
  56348                JUNCTION     0.00     0.00    38.22     0  00:00        0.00
  56346                JUNCTION     0.00     0.00    37.86     0  00:00        0.00
  56345                JUNCTION     0.00     0.00    37.89     0  00:00        0.00
  56344                JUNCTION     0.00     0.00    37.70     0  00:00        0.00
  56343                JUNCTION     0.01     0.03    37.63     0  19:32        0.03
  56342                JUNCTION     0.00     0.00    37.59     0  00:00        0.00
  56337                JUNCTION     0.01     0.02    37.56     0  19:35        0.02
  56336                JUNCTION     0.00     0.00    37.59     0  00:00        0.00
  56335                JUNCTION     0.01     0.02    36.96     0  19:38        0.02
  56334                JUNCTION     0.00     0.00    37.32     0  00:00        0.00
  56332                JUNCTION     0.00     0.00    39.97     0  00:00        0.00
  56331                JUNCTION     0.00     0.00    40.31     0  00:00        0.00
  56333                JUNCTION     0.00     0.00    41.43     0  00:00        0.00
  56482                JUNCTION     0.00     0.00    41.77     0  00:00        0.00
  56325                JUNCTION     0.00     0.00    41.47     0  00:00        0.00
  56481                JUNCTION     0.00     0.00    41.97     0  00:00        0.00
  56324                JUNCTION     0.00     0.00    41.76     0  00:00        0.00
  56323                JUNCTION     0.00     0.00    41.21     0  00:00        0.00
  56555                JUNCTION     0.00     0.00    39.42     0  00:00        0.00
  56326                JUNCTION     0.00     0.00    39.79     0  00:00        0.00
  56322                JUNCTION     0.00     0.00    39.28     0  00:00        0.00
  56321                JUNCTION     0.03     0.08    38.48     0  22:17        0.08
  658                  JUNCTION     0.00     0.00    40.00     0  00:00        0.00
  56320                JUNCTION     0.00     0.00    38.95     0  00:00        0.00
  56316                JUNCTION     0.41     0.81    38.49     0  22:28        0.80
  56315                JUNCTION     0.00     0.00    37.78     0  00:00        0.00
  56313                JUNCTION     0.00     0.00    41.38     0  00:00        0.00
  56312                JUNCTION     0.00     0.00    39.76     0  00:00        0.00
  56310                JUNCTION     0.00     0.00    38.69     0  00:00        0.00
  56308                JUNCTION     0.00     0.00    37.29     0  00:00        0.00
  56307                JUNCTION     0.76     1.20    38.48     0  22:16        1.20
  Node_61              JUNCTION     0.00     0.00    37.92     0  00:00        0.00
  56306                JUNCTION     0.00     0.00    37.63     0  00:00        0.00
  56304                JUNCTION     0.00     0.00    36.96     0  00:00        0.00
  56303                JUNCTION     0.00     0.00    36.45     0  00:00        0.00
  56301                JUNCTION     0.00     0.00    36.63     0  00:00        0.00
  56305                JUNCTION     0.00     0.00    36.95     0  00:00        0.00
  56302                JUNCTION     0.01     0.01    36.15     0  19:40        0.01
  56297                JUNCTION     0.00     0.00    31.79     0  00:00        0.00
  56296                JUNCTION     0.00     0.00    30.64     0  00:00        0.00
  56293                JUNCTION     0.01     0.02    27.45     0  19:39        0.02
  56294                JUNCTION     0.01     0.02    24.85     0  19:40        0.02
  56287                JUNCTION     0.00     0.00    42.72     0  00:00        0.00
  148693               JUNCTION     0.00     0.00    39.91     0  00:00        0.00
  56278                JUNCTION     0.00     0.00    36.94     0  00:00        0.00
  56279                JUNCTION     0.00     0.00    40.19     0  00:00        0.00
  56277                JUNCTION     0.00     0.00    37.12     0  00:00        0.00
  56276                JUNCTION     0.00     0.00    32.08     0  00:00        0.00
  56275                JUNCTION     0.00     0.00    32.49     0  00:00        0.00
  56271                JUNCTION     0.00     0.00    29.18     0  00:00        0.00
  56262                JUNCTION     0.00     0.00    27.26     0  00:00        0.00
  Node_60              JUNCTION     0.00     0.00    28.43     0  00:00        0.00
  56232                JUNCTION     0.00     0.00    28.35     0  00:00        0.00
  160454               JUNCTION     0.00     0.00    29.35     0  00:00        0.00
  55893                JUNCTION     0.00     0.00    36.70     0  00:00        0.00
  55892                JUNCTION     0.00     0.00    36.51     0  00:00        0.00
  55887                JUNCTION     0.00     0.00    34.24     0  00:00        0.00
  54717                JUNCTION     0.00     0.00    33.40     0  00:00        0.00
  55886                JUNCTION     0.00     0.00    34.84     0  00:00        0.00
  54716                JUNCTION     0.00     0.00    33.88     0  00:00        0.00
  54705                JUNCTION     0.28     1.00    37.02     0  23:38        1.00
  55875                JUNCTION     0.00     0.00    37.36     0  00:00        0.00
  54698                JUNCTION     0.00     0.00    38.61     0  00:00        0.00
  55874                JUNCTION     0.00     0.00    37.21     0  00:00        0.00
  55873                JUNCTION     0.14     0.27    35.80     0  23:54        0.27
  55949                JUNCTION     0.00     0.00    35.39     0  00:00        0.00
  55948                JUNCTION     0.00     0.00    36.59     0  00:00        0.00
  649                  JUNCTION     0.00     0.00    35.44     0  00:00        0.00
  55931                JUNCTION     0.00     0.00    40.51     0  00:00        0.00
  55930                JUNCTION     0.01     0.02    39.64     0  09:53        0.02
  55947                JUNCTION     0.00     0.00    38.56     0  00:00        0.00
  55928                JUNCTION     0.00     0.00    37.91     0  00:00        0.00
  55933                JUNCTION     0.01     0.03    42.70     0  19:48        0.03
  55919                JUNCTION     0.01     0.03    40.90     0  19:50        0.03
  55909                JUNCTION     0.02     0.04    41.09     0  19:35        0.04
  55908                JUNCTION     0.03     0.06    40.75     0  19:38        0.06
  55897                JUNCTION     0.00     0.00    35.89     0  00:00        0.00
  55896                JUNCTION     0.00     0.00    34.27     0  00:00        0.00
  55891                JUNCTION     0.00     0.00    35.80     0  00:00        0.00
  55890                JUNCTION     0.00     0.00    36.02     0  00:00        0.00
  55870                JUNCTION     0.01     0.02    42.42     0  19:48        0.02
  55871                JUNCTION     0.01     0.01    41.35     0  19:51        0.01
  55866                JUNCTION     0.06     0.22    39.19     0  23:54        0.21
  55865                JUNCTION     0.31     0.54    39.19     0  23:54        0.53
  55863                JUNCTION     0.00     0.00    33.42     0  00:00        0.00
  55862                JUNCTION     0.00     0.00    34.45     0  00:00        0.00
  55856                JUNCTION     0.00     0.00    36.48     0  00:00        0.00
  55846                JUNCTION     0.01     0.01    37.25     0  20:10        0.01
  55847                JUNCTION     0.07     0.11    37.40     0  20:02        0.11
  55845                JUNCTION     0.01     0.03    37.39     0  20:04        0.03
  55844                JUNCTION     0.01     0.02    37.71     0  20:04        0.02
  55830                JUNCTION     0.44     0.55    40.44     0  09:52        0.51
  55831                JUNCTION     0.12     0.14    40.82     0  19:56        0.14
  129904               JUNCTION     0.01     0.03    38.11     0  19:54        0.03
  55827                JUNCTION     0.59     0.75    38.11     0  11:09        0.75
  55825                JUNCTION     0.01     0.02    38.19     0  20:01        0.02
  55828                JUNCTION     0.01     0.01    39.17     0  19:58        0.01
  55824                JUNCTION     0.01     0.03    43.36     0  19:46        0.03
  55822                JUNCTION     0.01     0.03    45.45     0  19:44        0.03
  55821                JUNCTION     0.01     0.02    45.38     0  19:35        0.02
  55818                JUNCTION     0.00     0.00    43.87     0  00:00        0.00
  55819                JUNCTION     0.06     0.16    40.55     0  23:54        0.15
  55811                JUNCTION     0.00     0.00    43.40     0  00:00        0.00
  55808                JUNCTION     0.23     0.36    40.55     0  23:54        0.35
  55820                JUNCTION     0.02     0.12    40.27     0  23:54        0.11
  55807                JUNCTION     0.06     0.21    40.27     0  23:54        0.20
  55805                JUNCTION     0.28     0.52    40.27     0  23:54        0.51
  55804                JUNCTION     0.00     0.00    41.24     0  00:00        0.00
  55795                JUNCTION     0.01     0.01    40.82     0  19:57        0.01
  55794                JUNCTION     0.01     0.02    40.40     0  19:52        0.02
  55792                JUNCTION     0.00     0.00    41.80     0  23:54        0.00
  55791                JUNCTION     0.00     0.00    41.66     0  00:00        0.00
  55788                JUNCTION     0.00     0.00    48.65     0  00:00        0.00
  55789                JUNCTION     0.00     0.00    45.90     0  00:00        0.00
  55786                JUNCTION     0.00     0.00    44.50     0  00:00        0.00
  55918                JUNCTION     0.00     0.00    42.52     0  00:00        0.00
  55785                JUNCTION     0.00     0.00    42.68     0  00:00        0.00
  55776                JUNCTION     0.00     0.00    41.77     0  23:54        0.00
  55784                JUNCTION     0.00     0.00    42.29     0  00:00        0.00
  55775                JUNCTION     0.00     0.00    41.50     0  00:00        0.00
  55769                JUNCTION     0.24     0.83    41.82     0  23:54        0.43
  55768                JUNCTION     0.00     0.00    40.74     0  00:00        0.00
  55767                JUNCTION     0.00     0.00    43.63     0  00:00        0.00
  55764                JUNCTION     0.00     0.00    44.86     0  00:00        0.00
  55746                JUNCTION     0.00     0.00    42.91     0  00:00        0.00
  55968                JUNCTION     0.00     0.00    36.15     0  00:00        0.00
  55741                JUNCTION     0.38     0.50    37.10     0  12:55        0.50
  55738                JUNCTION     0.00     0.00    39.46     0  00:00        0.00
  55737                JUNCTION     0.00     0.00    37.07     0  00:00        0.00
  55736                JUNCTION     0.01     0.02    36.55     0  19:35        0.02
  55735                JUNCTION     0.00     0.00    38.68     0  00:00        0.00
  55910                JUNCTION     0.00     0.00    42.91     0  00:00        0.00
  55718                JUNCTION     0.00     0.00    42.38     0  00:00        0.00
  55717                JUNCTION     0.00     0.00    42.34     0  00:00        0.00
  55716                JUNCTION     0.02     0.04    40.62     0  19:40        0.04
  55714                JUNCTION     0.01     0.03    40.05     0  19:42        0.03
  55702                JUNCTION     0.00     0.00    35.12     0  00:00        0.00
  54682                JUNCTION     0.00     0.00    28.43     0  00:00        0.00
  54684                JUNCTION     0.02     0.04    29.17     0  19:40        0.04
  102098               JUNCTION     0.00     0.01    14.01     0  19:36        0.01
  54517                JUNCTION     0.00     0.00    21.99     0  00:00        0.00
  54516                JUNCTION     0.01     0.01    21.82     0  19:41        0.01
  55160                JUNCTION     0.00     0.00    22.25     0  00:00        0.00
  55159                JUNCTION     0.00     0.00    23.03     0  00:00        0.00
  55158                JUNCTION     0.00     0.00    22.54     0  00:00        0.00
  55157                JUNCTION     0.00     0.00    22.61     0  00:00        0.00
  55155                JUNCTION     0.00     0.00    22.62     0  00:00        0.00
  55152                JUNCTION     0.00     0.00    22.71     0  00:00        0.00
  55151                JUNCTION     0.00     0.00    22.92     0  00:00        0.00
  55150                JUNCTION     0.00     0.00    22.98     0  00:00        0.00
  55149                JUNCTION     0.00     0.00    22.73     0  00:00        0.00
  55184                JUNCTION     0.00     0.00    21.62     0  00:00        0.00
  54713                JUNCTION     0.00     0.00    33.44     0  00:00        0.00
  54712                JUNCTION     0.00     0.00    33.20     0  00:00        0.00
  54729                JUNCTION     0.00     0.00    31.77     0  00:00        0.00
  54710                JUNCTION     0.00     0.00    32.13     0  00:00        0.00
  54709                JUNCTION     0.00     0.00    31.65     0  00:00        0.00
  54711                JUNCTION     0.00     0.00    32.63     0  00:00        0.00
  54708                JUNCTION     0.00     0.00    32.09     0  00:00        0.00
  54702                JUNCTION     0.00     0.00    40.94     0  00:00        0.00
  54703                JUNCTION     0.00     0.00    41.18     0  00:00        0.00
  54700                JUNCTION     0.00     0.00    38.51     0  00:00        0.00
  54699                JUNCTION     0.00     0.00    39.31     0  00:00        0.00
  54697                JUNCTION     0.01     0.01    38.57     0  19:45        0.01
  54696                JUNCTION     0.00     0.00    37.23     0  00:00        0.00
  54777                JUNCTION     0.00     0.00    29.40     0  00:00        0.00
  54728                JUNCTION     0.00     0.00    35.43     0  00:00        0.00
  54694                JUNCTION     0.00     0.00    30.81     0  00:00        0.00
  54735                JUNCTION     0.00     0.00    24.20     0  00:00        0.00
  54691                JUNCTION     0.00     0.00    30.66     0  00:00        0.00
  54688                JUNCTION     0.00     0.00    29.59     0  00:00        0.00
  54687                JUNCTION     0.02     0.04    29.78     0  19:37        0.04
  54695                JUNCTION     0.02     0.03    30.84     0  19:35        0.03
  54686                JUNCTION     0.00     0.00    28.93     0  00:00        0.00
  54683                JUNCTION     0.00     0.00    28.78     0  00:00        0.00
  54673                JUNCTION     0.00     0.00    18.10     0  00:00        0.00
  54664                JUNCTION     0.00     0.00     8.60     0  00:00        0.00
  54734                JUNCTION     0.01     0.01     7.26     0  19:35        0.01
  772                  JUNCTION     0.00     0.00     8.42     0  00:00        0.00
  54662                JUNCTION     0.00     0.01     5.43     0  19:37        0.01
  54661                JUNCTION     0.00     0.00     5.48     0  00:00        0.00
  54649                JUNCTION     0.00     0.01     4.54     0  19:38        0.01
  54639                JUNCTION     0.01     0.02    25.60     0  19:36        0.02
  54638                JUNCTION     0.00     0.01    26.15     0  20:40        0.01
[...]
  56100                   1.00   0.45  0.00  0.00  0.35  0.20  0.00  0.00  0.52  0.00
  56099                   1.00   0.41  0.00  0.00  0.59  0.00  0.00  0.00  0.58  0.00
  56098                   1.00   0.18  0.23  0.00  0.59  0.00  0.00  0.00  0.00  0.00
  56097                   1.00   0.41  0.00  0.00  0.58  0.00  0.00  0.00  0.59  0.00
  56095                   1.00   0.45  0.55  0.00  0.00  0.00  0.00  0.00  0.00  0.00
  56093                   1.00   0.41  0.59  0.00  0.00  0.00  0.00  0.00  0.00  0.00
  56092                   1.00   0.17  0.83  0.00  0.00  0.00  0.00  0.00  0.00  0.00
  56091                   1.00   1.00  0.00  0.00  0.00  0.00  0.00  0.00  0.00  0.00
  56089                   1.00   1.00  0.00  0.00  0.00  0.00  0.00  0.00  0.00  0.00
  56088                   1.00   1.00  0.00  0.00  0.00  0.00  0.00  0.00  0.00  0.00
  56083                   1.00   1.00  0.00  0.00  0.00  0.00  0.00  0.00  0.00  0.00
  56082                   1.00   1.00  0.00  0.00  0.00  0.00  0.00  0.00  0.00  0.00
  56078                   1.00   0.17  0.83  0.00  0.00  0.00  0.00  0.00  0.00  0.00
  56077                   1.00   0.17  0.83  0.00  0.00  0.00  0.00  0.00  0.00  0.00
  56076                   1.00   1.00  0.00  0.00  0.00  0.00  0.00  0.00  0.00  0.00
  56075                   1.00   1.00  0.00  0.00  0.00  0.00  0.00  0.00  0.00  0.00
  56074                   1.00   0.17  0.83  0.00  0.00  0.00  0.00  0.00  0.00  0.00
  56071                   1.00   1.00  0.00  0.00  0.00  0.00  0.00  0.00  0.00  0.00
  56057                   1.00   1.00  0.00  0.00  0.00  0.00  0.00  0.00  0.00  0.00
  56056                   1.00   0.19  0.00  0.00  0.20  0.61  0.00  0.00  0.00  0.00
  56051                   1.00   1.00  0.00  0.00  0.00  0.00  0.00  0.00  0.00  0.00
  56049                   1.00   0.17  0.00  0.00  0.83  0.00  0.00  0.00  0.82  0.00
  56048                   1.00   0.17  0.32  0.00  0.51  0.00  0.00  0.00  0.00  0.00
  56045                   1.00   0.17  0.83  0.00  0.00  0.00  0.00  0.00  0.00  0.00
  56044                   1.00   1.00  0.00  0.00  0.00  0.00  0.00  0.00  0.00  0.00
  56043                   1.00   0.38  0.00  0.00  0.05  0.57  0.00  0.00  0.33  0.00
  56042                   1.00   0.38  0.00  0.00  0.21  0.42  0.00  0.00  0.01  0.00
  56041                   1.00   0.38  0.62  0.00  0.00  0.00  0.00  0.00  0.00  0.00
  56040                   1.00   1.00  0.00  0.00  0.00  0.00  0.00  0.00  0.00  0.00
  56027                   1.00   1.00  0.00  0.00  0.00  0.00  0.00  0.00  0.00  0.00
  56026                   1.00   1.00  0.00  0.00  0.00  0.00  0.00  0.00  0.00  0.00
  56025                   1.00   0.17  0.83  0.00  0.00  0.00  0.00  0.00  0.00  0.00
  56024                   1.00   0.17  0.00  0.00  0.83  0.00  0.00  0.00  0.00  0.00
  56023                   1.00   0.18  0.00  0.00  0.81  0.01  0.00  0.00  0.65  0.00
  56022                   1.00   0.17  0.00  0.00  0.83  0.00  0.00  0.00  0.00  0.00
  56010                   1.00   0.20  0.80  0.00  0.00  0.00  0.00  0.00  0.00  0.00
  56009                   1.00   1.00  0.00  0.00  0.00  0.00  0.00  0.00  0.00  0.00
  56008                   1.00   1.00  0.00  0.00  0.00  0.00  0.00  0.00  0.00  0.00
  55541                   1.00   1.00  0.00  0.00  0.00  0.00  0.00  0.00  0.00  0.00
  55533                   1.00   0.17  0.00  0.00  0.83  0.00  0.00  0.00  0.00  0.00
  55531                   1.00   0.41  0.00  0.00  0.23  0.36  0.00  0.00  0.00  0.00
  55530                   1.00   1.00  0.00  0.00  0.00  0.00  0.00  0.00  0.00  0.00
  55528                   1.00   0.17  0.00  0.00  0.83  0.00  0.00  0.00  0.00  0.00
  55517                   1.00   0.37  0.63  0.00  0.00  0.00  0.00  0.00  0.00  0.00
  55516                   1.00   1.00  0.00  0.00  0.00  0.00  0.00  0.00  0.00  0.00
  55515                   1.00   1.00  0.00  0.00  0.00  0.00  0.00  0.00  0.00  0.00
  55514                   1.00   1.00  0.00  0.00  0.00  0.00  0.00  0.00  0.00  0.00
  55512                   1.00   1.00  0.00  0.00  0.00  0.00  0.00  0.00  0.00  0.00
  55511                   1.00   1.00  0.00  0.00  0.00  0.00  0.00  0.00  0.00  0.00
  55510                   1.00   1.00  0.00  0.00  0.00  0.00  0.00  0.00  0.00  0.00
  55509                   1.00   1.00  0.00  0.00  0.00  0.00  0.00  0.00  0.00  0.00
  55508                   1.00   1.00  0.00  0.00  0.00  0.00  0.00  0.00  0.00  0.00
  55449                   1.00   1.00  0.00  0.00  0.00  0.00  0.00  0.00  0.00  0.00
  54875                   1.00   1.00  0.00  0.00  0.00  0.00  0.00  0.00  0.00  0.00
  54874                   1.00   1.00  0.00  0.00  0.00  0.00  0.00  0.00  0.00  0.00
  54873                   1.00   1.00  0.00  0.00  0.00  0.00  0.00  0.00  0.00  0.00
  54872                   1.00   1.00  0.00  0.00  0.00  0.00  0.00  0.00  0.00  0.00
  54871                   1.00   1.00  0.00  0.00  0.00  0.00  0.00  0.00  0.00  0.00
  54868                   1.00   1.00  0.00  0.00  0.00  0.00  0.00  0.00  0.00  0.00
  54866                   1.00   1.00  0.00  0.00  0.00  0.00  0.00  0.00  0.00  0.00
  54864                   1.00   0.17  0.83  0.00  0.00  0.00  0.00  0.00  0.00  0.00
  54863                   1.00   0.17  0.83  0.00  0.00  0.00  0.00  0.00  0.00  0.00
  54860                   1.00   0.17  0.83  0.00  0.00  0.00  0.00  0.00  0.00  0.00
  54859                   1.00   1.00  0.00  0.00  0.00  0.00  0.00  0.00  0.00  0.00
  54858                   1.00   1.00  0.00  0.00  0.00  0.00  0.00  0.00  0.00  0.00
  54856                   1.00   1.00  0.00  0.00  0.00  0.00  0.00  0.00  0.00  0.00
  54855                   1.00   0.17  0.00  0.00  0.83  0.00  0.00  0.00  0.00  0.00
  54854                   1.00   0.17  0.00  0.00  0.83  0.00  0.00  0.00  0.82  0.00
  54853                   1.00   1.00  0.00  0.00  0.00  0.00  0.00  0.00  0.00  0.00
  54851                   1.00   1.00  0.00  0.00  0.00  0.00  0.00  0.00  0.00  0.00
  54850                   1.00   1.00  0.00  0.00  0.00  0.00  0.00  0.00  0.00  0.00
  54849                   1.00   1.00  0.00  0.00  0.00  0.00  0.00  0.00  0.00  0.00
  54847                   1.00   1.00  0.00  0.00  0.00  0.00  0.00  0.00  0.00  0.00
  54845                   1.00   1.00  0.00  0.00  0.00  0.00  0.00  0.00  0.00  0.00
  54844                   1.00   0.17  0.00  0.00  0.83  0.00  0.00  0.00  0.77  0.00
  54843                   1.00   1.00  0.00  0.00  0.00  0.00  0.00  0.00  0.00  0.00
  54840                   1.00   0.17  0.00  0.00  0.83  0.00  0.00  0.00  0.73  0.00
  54839                   1.00   1.00  0.00  0.00  0.00  0.00  0.00  0.00  0.00  0.00
  54837                   1.00   1.00  0.00  0.00  0.00  0.00  0.00  0.00  0.00  0.00
  54828                   1.00   1.00  0.00  0.00  0.00  0.00  0.00  0.00  0.00  0.00
  54827                   1.00   0.17  0.00  0.00  0.83  0.00  0.00  0.00  0.03  0.00
  54826                   1.00   1.00  0.00  0.00  0.00  0.00  0.00  0.00  0.00  0.00
  54825                   1.00   0.17  0.00  0.00  0.35  0.48  0.00  0.00  0.00  0.00
  54824                   1.00   0.17  0.83  0.00  0.00  0.00  0.00  0.00  0.00  0.00
  54814                   1.00   0.17  0.00  0.00  0.29  0.54  0.00  0.00  0.71  0.00
  54813                   1.00   0.17  0.00  0.00  0.21  0.62  0.00  0.00  0.05  0.00
  54803                   1.00   0.17  0.00  0.00  0.15  0.68  0.00  0.00  0.81  0.00
  54802                   1.00   0.86  0.00  0.00  0.00  0.14  0.00  0.00  0.14  0.00
  54801                   1.00   0.86  0.00  0.00  0.00  0.14  0.00  0.00  0.14  0.00
  54800                   1.00   0.17  0.00  0.00  0.83  0.00  0.00  0.00  0.82  0.00
  54799                   1.00   1.00  0.00  0.00  0.00  0.00  0.00  0.00  0.00  0.00
  54798                   1.00   0.17  0.00  0.00  0.83  0.00  0.00  0.00  0.00  0.00
  54797                   1.00   1.00  0.00  0.00  0.00  0.00  0.00  0.00  0.00  0.00
  54796                   1.00   1.00  0.00  0.00  0.00  0.00  0.00  0.00  0.00  0.00
  54795                   1.00   0.17  0.00  0.00  0.04  0.79  0.00  0.00  0.03  0.00
  54794                   1.00   1.00  0.00  0.00  0.00  0.00  0.00  0.00  0.00  0.00
  54793                   1.00   0.17  0.00  0.00  0.02  0.80  0.00  0.00  0.80  0.00
  54792                   1.00   1.00  0.00  0.00  0.00  0.00  0.00  0.00  0.00  0.00
  54791                   1.00   1.00  0.00  0.00  0.00  0.00  0.00  0.00  0.00  0.00
  54790                   1.00   0.17  0.00  0.00  0.20  0.63  0.00  0.00  0.82  0.00
  54789                   1.00   1.00  0.00  0.00  0.00  0.00  0.00  0.00  0.00  0.00
  54621                   1.00   1.00  0.00  0.00  0.00  0.00  0.00  0.00  0.00  0.00
  54620                   1.00   1.00  0.00  0.00  0.00  0.00  0.00  0.00  0.00  0.00
  54619                   1.00   0.50  0.00  0.00  0.49  0.00  0.00  0.00  0.00  0.00
  54612                   1.00   1.00  0.00  0.00  0.00  0.00  0.00  0.00  0.00  0.00
  54608                   1.00   1.00  0.00  0.00  0.00  0.00  0.00  0.00  0.00  0.00
  54603                   1.00   1.00  0.00  0.00  0.00  0.00  0.00  0.00  0.00  0.00
  54600                   1.00   1.00  0.00  0.00  0.00  0.00  0.00  0.00  0.00  0.00
  54599                   1.00   0.17  0.00  0.00  0.83  0.00  0.00  0.00  0.00  0.00
  54594                   1.00   1.00  0.00  0.00  0.00  0.00  0.00  0.00  0.00  0.00
  54593                   1.00   0.17  0.00  0.00  0.44  0.39  0.00  0.00  0.82  0.00
  54592                   1.00   1.00  0.00  0.00  0.00  0.00  0.00  0.00  0.00  0.00
  54591                   1.00   1.00  0.00  0.00  0.00  0.00  0.00  0.00  0.00  0.00
  54590                   1.00   1.00  0.00  0.00  0.00  0.00  0.00  0.00  0.00  0.00
  54589                   1.00   0.17  0.00  0.00  0.83  0.00  0.00  0.00  0.82  0.00
  54588                   1.00   1.00  0.00  0.00  0.00  0.00  0.00  0.00  0.00  0.00
  54585                   1.00   0.17  0.00  0.00  0.83  0.00  0.00  0.00  0.00  0.00
  54584                   1.00   1.00  0.00  0.00  0.00  0.00  0.00  0.00  0.00  0.00
  54583                   1.00   1.00  0.00  0.00  0.00  0.00  0.00  0.00  0.00  0.00
  54582                   1.00   1.00  0.00  0.00  0.00  0.00  0.00  0.00  0.00  0.00
  54581                   1.00   0.17  0.00  0.00  0.83  0.00  0.00  0.00  0.22  0.00
  54580                   1.00   0.17  0.00  0.00  0.83  0.00  0.00  0.00  0.83  0.00
  54579                   1.00   0.17  0.01  0.00  0.82  0.00  0.00  0.00  0.25  0.00
  54578                   1.00   1.00  0.00  0.00  0.00  0.00  0.00  0.00  0.00  0.00
  54577                   1.00   0.17  0.34  0.00  0.50  0.00  0.00  0.00  0.00  0.00
  54576                   1.00   1.00  0.00  0.00  0.00  0.00  0.00  0.00  0.00  0.00
  54575                   1.00   0.50  0.00  0.00  0.50  0.00  0.00  0.00  0.50  0.00
  54574                   1.00   1.00  0.00  0.00  0.00  0.00  0.00  0.00  0.00  0.00
  54573                   1.00   0.50  0.00  0.00  0.50  0.00  0.00  0.00  0.00  0.00
  54481                   1.00   1.00  0.00  0.00  0.00  0.00  0.00  0.00  0.00  0.00
  54478                   1.00   0.20  0.80  0.00  0.00  0.00  0.00  0.00  0.00  0.00
  54477                   1.00   1.00  0.00  0.00  0.00  0.00  0.00  0.00  0.00  0.00
  5176                    1.00   0.17  0.00  0.00  0.83  0.00  0.00  0.00  0.43  0.00
  5166                    1.00   0.17  0.00  0.00  0.83  0.00  0.00  0.00  0.77  0.00
  5061                    1.00   1.00  0.00  0.00  0.00  0.00  0.00  0.00  0.00  0.00
  5059                    1.00   1.00  0.00  0.00  0.00  0.00  0.00  0.00  0.00  0.00
  1363                    1.00   1.00  0.00  0.00  0.00  0.00  0.00  0.00  0.00  0.00
  1346                    1.00   1.00  0.00  0.00  0.00  0.00  0.00  0.00  0.00  0.00
  1345                    1.00   1.00  0.00  0.00  0.00  0.00  0.00  0.00  0.00  0.00
  1341                    1.00   0.17  0.83  0.00  0.00  0.00  0.00  0.00  0.00  0.00
  1280                    1.00   1.00  0.00  0.00  0.00  0.00  0.00  0.00  0.00  0.00
  1272                    1.00   1.00  0.00  0.00  0.00  0.00  0.00  0.00  0.00  0.00
  1229                    1.00   1.00  0.00  0.00  0.00  0.00  0.00  0.00  0.00  0.00
  1222                    1.00   1.00  0.00  0.00  0.00  0.00  0.00  0.00  0.00  0.00
  117818                  1.00   1.00  0.00  0.00  0.00  0.00  0.00  0.00  0.00  0.00
  115616                  1.00   1.00  0.00  0.00  0.00  0.00  0.00  0.00  0.00  0.00
  112493                  1.00   1.00  0.00  0.00  0.00  0.00  0.00  0.00  0.00  0.00
  102119                  1.00   0.17  0.00  0.00  0.60  0.23  0.00  0.00  0.70  0.00
  102103                  1.00   0.17  0.24  0.00  0.59  0.00  0.00  0.00  0.00  0.00
  101835                  1.00   0.41  0.00  0.00  0.11  0.47  0.00  0.00  0.58  0.00
  101834                  1.00   0.41  0.00  0.00  0.00  0.58  0.00  0.00  0.00  0.00
  101243                  1.00   0.20  0.00  0.00  0.34  0.46  0.00  0.00  0.74  0.00
  101231                  1.00   1.00  0.00  0.00  0.00  0.00  0.00  0.00  0.00  0.00
  101229                  1.00   1.00  0.00  0.00  0.00  0.00  0.00  0.00  0.00  0.00
  101225                  1.00   1.00  0.00  0.00  0.00  0.00  0.00  0.00  0.00  0.00
  101224                  1.00   1.00  0.00  0.00  0.00  0.00  0.00  0.00  0.00  0.00
  101220                  1.00   1.00  0.00  0.00  0.00  0.00  0.00  0.00  0.00  0.00
  101218                  1.00   1.00  0.00  0.00  0.00  0.00  0.00  0.00  0.00  0.00
  101214                  1.00   1.00  0.00  0.00  0.00  0.00  0.00  0.00  0.00  0.00
  101212                  1.00   1.00  0.00  0.00  0.00  0.00  0.00  0.00  0.00  0.00
  101179                  1.00   0.20  0.00  0.00  0.30  0.51  0.00  0.00  0.00  0.00
  101132                  1.00   0.17  0.83  0.00  0.00  0.00  0.00  0.00  0.00  0.00
  101131                  1.00   0.19  0.14  0.00  0.68  0.00  0.00  0.00  0.63  0.00
  101083                  1.00   0.17  0.00  0.00  0.83  0.00  0.00  0.00  0.18  0.00
  101080                  1.00   0.17  0.15  0.00  0.68  0.00  0.00  0.00  0.81  0.00
  101055                  1.00   0.20  0.00  0.00  0.29  0.51  0.00  0.00  0.72  0.00
  101054                  1.00   0.20  0.00  0.00  0.77  0.02  0.00  0.00  0.60  0.00
  100995                  1.00   1.00  0.00  0.00  0.00  0.00  0.00  0.00  0.00  0.00
  100984                  1.00   0.21  0.00  0.00  0.79  0.00  0.00  0.00  0.19  0.00
  100968                  1.00   0.17  0.00  0.00  0.63  0.20  0.00  0.00  0.82  0.00
  100870                  1.00   0.18  0.00  0.00  0.55  0.28  0.00  0.00  0.72  0.00
  100675                  1.00   0.17  0.00  0.00  0.81  0.02  0.00  0.00  0.01  0.00
  100607                  1.00   1.00  0.00  0.00  0.00  0.00  0.00  0.00  0.00  0.00
  100593                  1.00   1.00  0.00  0.00  0.00  0.00  0.00  0.00  0.00  0.00
  100589                  1.00   1.00  0.00  0.00  0.00  0.00  0.00  0.00  0.00  0.00
  100575                  1.00   1.00  0.00  0.00  0.00  0.00  0.00  0.00  0.00  0.00
  100560                  1.00   1.00  0.00  0.00  0.00  0.00  0.00  0.00  0.00  0.00
  100559                  1.00   1.00  0.00  0.00  0.00  0.00  0.00  0.00  0.00  0.00
  100353                  1.00   0.17  0.00  0.00  0.83  0.00  0.00  0.00  0.83  0.00
  
  
  *************************
  Conduit Surcharge Summary
  *************************
  
  ----------------------------------------------------------------------------
                                                           Hours        Hours 
                         --------- Hours Full --------   Above Full   Capacity
  Conduit                Both Ends  Upstream  Dnstream   Normal Flow   Limited
  ----------------------------------------------------------------------------
  77846                       0.01      0.01     14.67      0.01         0.01
  55331                       0.01      0.01     13.61      0.01         0.01
  54462                       0.01      0.01     13.90      0.01         0.01
  54436                       0.01      0.01      8.96      0.01         0.01
  54433                       8.96      8.96     11.66      0.01         0.01
  78238                       0.01      0.01      4.15      0.01         0.01
  78236                       4.15      4.15      5.09      0.01         0.01
  78234                       9.98      9.98     12.06      0.01         0.01
  78233                       5.09      5.09     11.93      0.01         0.01
  78004                       0.01      0.01     13.67      0.01         0.01
  95682                       0.01      0.01      7.83      0.01         0.01
  73895                       0.01      0.01      4.98      0.01         0.01
  88201                       0.01      0.01      3.50      0.01         0.01
  87379                       0.01      0.01     11.59      0.01         0.01
  83972                       0.01      0.01      9.91      0.01         0.01
  83971                       0.01      0.01      9.91      0.01         0.01
  83821                       0.01      0.01      3.10      0.01         0.01
  65586                       0.01      0.01     14.37      0.01         0.01
  65571                      14.37     14.37     15.03      0.01         0.01
  65568                       1.77      1.77     13.73      0.01         0.01
  65491                       0.01      0.01     14.32      0.01         0.01
  65490                      13.76     13.76     14.07      0.01         0.01
  65489                       0.01      0.01     14.27      0.01         0.01
  64954                      14.53     14.53     14.58      0.01         0.01
  56875                       0.01      0.01     14.58      0.01         0.01
  56739                       0.01      0.01     12.12      0.01         0.01
  56696                       0.01      0.01      4.06      0.01         0.01
  56680                       4.13      4.13     13.98      0.01         0.01
  56210                       3.52      3.52      7.61      0.01         0.01
  56155                       0.01      0.01      3.04      0.01         0.01
  56132                       0.01      0.01     14.06      0.01         0.01
  56127                       0.01      0.01     12.76      0.01         0.01
  56109                       0.01      0.01      4.12      0.01         0.01
  56099                       0.01      0.01      4.17      0.01         0.01
  56098                       0.01      0.01     14.05      0.01         0.01
  56097                       0.01      0.01     12.82      0.01         0.01
  56078                       0.01      0.01      0.01      0.01         0.01
  56077                       0.01      0.01      0.01      0.01         0.01
  56049                       0.01      0.01     12.31      0.01         0.01
  56048                       0.01      0.01     12.23      0.01         0.01
  54854                       0.01      0.01      0.55      0.01         0.01
  54581                       0.01      0.01     12.20      0.01         0.01
  54580                       0.01      0.01     12.20      0.01         0.01
  54579                       0.01      0.01     14.36      0.01         0.01
  101083                      1.30      1.30      2.02      0.01         0.01
  101080                      0.01      0.01      5.38      0.01         0.01
  100984                      0.01      0.01     14.39      0.01         0.01
  100353                      0.01      0.01      0.14      0.01         0.01
  

  Analysis begun on:  Sun Mar 31 13:50:22 2024
  Analysis ended on:  Sun Mar 31 13:50:39 2024
  Total elapsed time: 00:00:17